LAMMPS (8 Feb 2023)
# LAMMPS input generated from LammpsInputFile with pymatgen v2024.10.3

units metal
boundary p p p
atom_style atomic
box tilt large

The 'box' command has been removed and will be ignored

read_data structure.data
Reading data file ...
  triclinic box = (0 0 0) to (7.84919 7.935562 7.922427) with tilt (0.03932 0.064437 -0.034254)
  reading atoms ...
  40 atoms
pair_style pace/extrapolation
ACE/AL version: 2022.6.27
pair_coeff * * ../../output_potential4.yaml ../../output_potential4.asi Na Ti Bi O
Loading ../../output_potential4.yaml
Total number of basis functions
	Bi: 39 (r=1) 558 (r>1)
	Na: 39 (r=1) 558 (r>1)
	O: 39 (r=1) 558 (r>1)
	Ti: 39 (r=1) 558 (r>1)
Mapping LAMMPS atom type #1(Na) -> ACE species type #1
Mapping LAMMPS atom type #2(Ti) -> ACE species type #3
Mapping LAMMPS atom type #3(Bi) -> ACE species type #0
Mapping LAMMPS atom type #4(O) -> ACE species type #2
Loading ASI ../../output_potential4.asi
LINEAR ASI is loaded
# compute per-atom extrapolation grade every 10 steps
fix pace_gamma all pair 10 pace/extrapolation gamma 1
# compute maximum extrapolation grade over complete structure
compute max_pace_gamma all reduce max f_pace_gamma
# dump extrapolative structures if c_max_pace_gamma > 5, skip otherwise, check every 20 steps
variable dump_skip equal "c_max_pace_gamma < 5"
dump pace_dump all custom 20 extrapolative_structures.dump id type x y z f_pace_gamma
dump_modify pace_dump skip v_dump_skip
# stop simulation if maximum extrapolation grade exceeds 25
variable max_pace_gamma equal c_max_pace_gamma
fix extreme_extrapolation all halt 10 v_max_pace_gamma > 25
# Starting simulation
thermo 500
timestep 0.001
# dump myDump all atom 500 dump.lammpstrj
velocity all create 100.0 42
fix 1 all nvt temp 50 300 0.1
run 10000
Step          Temp          E_pair         E_mol          TotEng         Press
0   100           -262.76149      0             -262.25738      197729.09
Averages over the last 11 of 21 rows, steps 5000 to 10000:
Temp E_pair E_mol TotEng Press
233.177 -307.444 0 -306.268 1319.56
Loop time of 6.22367 on 64 procs for 10000 steps with 40 atoms

unfix 1
fix 1 all npt temp 300 300 0.1 aniso 0 10000 1
run 20000
Step          Temp          E_pair         E_mol          TotEng         Press          Volume
10000   305.29935     -307.27121      0             -305.73216      12050.977      493.47002
Averages over the last 21 of 41 rows, steps 20000 to 30000:
Temp E_pair E_mol TotEng Press Volume
308.568 -307.094 0 -305.538 7326.14 491.555
Loop time of 13.7699 on 64 procs for 20000 steps with 40 atoms

unfix 1
fix 1 all npt temp 300 300 0.1 aniso 10000 0 1
run 20000
Step          Temp          E_pair         E_mol          TotEng         Press          Volume
30000   311.49603     -307.13192      0             -305.56163      12654.928      494.11005
Averages over the last 21 of 41 rows, steps 40000 to 50000:
Temp E_pair E_mol TotEng Press Volume
287.862 -307.116 0 -305.665 2084.58 494.446
Loop time of 13.2771 on 64 procs for 20000 steps with 40 atoms

unfix 1
fix 1 all nvt temp 300 2000 0.1 #aniso 0 0 1
run 68000
Step          Temp          E_pair         E_mol          TotEng         Press
50000   230.38135     -307.23486      0             -306.07348      8396.5773
Averages over the last 69 of 137 rows, steps 84000 to 118000:
Temp E_pair E_mol TotEng Press
1552.48 -300.565 0 -292.739 43359.8
Loop time of 57.0648 on 64 procs for 68000 steps with 40 atoms

unfix 1
fix 1 all nvt temp 2000 300 0.1 #aniso 0 0 1
run 68000
Step          Temp          E_pair         E_mol          TotEng         Press
118000   2026.9531     -297.3109       0             -287.09274      69144.606
Averages over the last 69 of 137 rows, steps 152000 to 186000:
Temp E_pair E_mol TotEng Press
753.054 -304.5 0 -300.703 14815.8
Loop time of 50.1884 on 64 procs for 68000 steps with 40 atoms

unfix 1
fix 1 all box/relax aniso 0.0
minimize 0 1.0e-8 10000 1000000
 (src/min.cpp:225)
Step          Temp          E_pair         E_mol          TotEng         Press          Volume
186000   360.80609     -307.04982      0             -305.23095     -2644.3969      493.68819
Loop time of 4.01156 on 64 procs for 909 steps with 40 atoms

Minimization stats:
  Stopping criterion = linesearch alpha is zero
  Energy initial, next-to-last, final =
  Force two-norm initial, final = 9.0037368 0.035535085
  Force max component initial, final = 5.4985346 0.015565485
  Final line search alpha, max atom move = 6.273897e-06 9.765625e-08
  Iterations, force evaluations = 909 951

unfix 1
write_data out.data
System init for write_data ...
